/*--------------------------------*- C++ -*----------------------------------*\
| =========                 |                                                 |
| \\      /  F ield         | OpenFOAM: The Open Source CFD Toolbox           |
|  \\    /   O peration     | Version:  5                                     |
|   \\  /    A nd           | Web:      www.OpenFOAM.org                      |
|    \\/     M anipulation  |                                                 |
\*---------------------------------------------------------------------------*/
FoamFile
{
    version     2.0;
    format      ascii;
    class       dictionary;
    location    "system";
    object      controlDict;
}
// * * * * * * * * * * * * * * * * * * * * * * * * * * * * * * * * * * * * * //

application     buoyantBoussinesqPimpleFoam;

startFrom       latestTime;

startTime       0;

stopAt          endTime;

endTime         1.5;

deltaT          0.0001;

writeControl    runTime;

writeInterval   0.005;

purgeWrite      0;

writeFormat     ascii;

writePrecision  6;

writeCompression off;

timeFormat      general;

timePrecision   6;

runTimeModifiable true;

adjustTimeStep  no;

maxCo           0.9; 
/*
functions
(
//   RTD
  // {
	type patchAverage;
	functionObjectLibs ("libsimpleFunctionObjects.so");	
	fields ( T );
	patches ( outlet );
	verbose true;
	factor 1;
   //}
);
*/
// ************************************************************************* //
